@<TRIPOS>MOLECULE
methanol.xyz
 6 5 0 0 0
SMALL
GASTEIGER

@<TRIPOS>ATOM
      1 C          -1.6459    0.6040   -0.0008 c3      1  LIG1       -0.270716
      2 O          -0.2477    0.6140    0.0089 oh      1  LIG1       -0.614420
      3 H          -2.0368    1.5978   -0.3095 h1      1  LIG1        0.149546
      4 H          -2.0368    0.3184    0.9998 h1      1  LIG1        0.149572
      5 H          -1.9946   -0.1492   -0.7369 h1      1  LIG1        0.182324
      6 H           0.0158    1.2982    0.6776 ho      1  LIG1        0.403694
@<TRIPOS>BOND
     1     5     1    1
     2     3     1    1
     3     1     2    1
     4     1     4    1
     5     2     6    1
