@<TRIPOS>MOLECULE
scf done:     -972.818126
 23 25 0 0 0
SMALL
GASTEIGER

@<TRIPOS>ATOM
      1 C          -4.3028   -0.1130    0.0000 ca    1  LIG1       -0.146379
      2 C          -3.1580   -0.8902    0.0000 ca    1  LIG1       -0.203719
      3 C          -4.2101    1.2827    0.0000 ca    1  LIG1       -0.183327
      4 H          -5.2758   -0.5966    0.0000 ha     1  LIG1       0.182725
      5 C          -1.8932   -0.2834    0.0000 ca    1  LIG1       -0.171198
      6 H          -3.2331   -1.9747    0.0000 ha     1  LIG1       0.187544
      7 C          -2.9645    1.8802    0.0000 ca    1  LIG1       -0.159268
      8 H          -5.1096    1.8911    0.0000 ha     1  LIG1       0.181843
      9 C          -1.7869    1.1156    0.0000 ca    1  LIG1        0.017211
     10 S          -0.5238   -1.3727    0.0000 ss    1  LIG1        0.301003
     11 H          -2.8481    2.9595    0.0000 ha     1  LIG1       0.211118
     12 C          -0.5029    1.8545    0.0000 ca    1  LIG1        0.366999
     13 C           0.8597   -0.3012    0.0000 ca    1  LIG1       -0.171215
     14 C           0.7715    1.0990    0.0000 ca    1  LIG1        0.017148
     15 O          -0.4949    3.0799    0.0000 o     1  LIG1       -0.501075
     16 C           2.1165   -0.9244    0.0000 ca    1  LIG1       -0.203725
     17 C           1.9589    1.8484    0.0000 ca    1  LIG1       -0.159215
     18 C           3.1966    1.2347    0.0000 ca    1  LIG1       -0.183335
     19 H           1.8565    2.9290    0.0000 ha     1  LIG1       0.211125
     20 C           3.2713   -0.1620    0.0000 ca    1  LIG1       -0.146372
     21 H           2.1776   -2.0097    0.0000 ha       1  LIG1     0.187552
     22 H           4.2380   -0.6583    0.0000 ha       1  LIG1     0.182727
     23 H           4.1039    1.8315    0.0000 ha       1  LIG1     0.181832
@<TRIPOS>BOND                                                                 
     1    12    15    2
     2    12    14   ar
     3    12     9   ar
     4    23    18    1
     5    22    20    1
     6    21    16    1
     7    20    18   ar
     8    20    16   ar
     9    19    17    1
    10    18    17   ar
    11    17    14   ar
    12    16    13   ar
    13    14    13   ar
    14    13    10   ar
    15     1     4    1
    16     1     3   ar
    17     1     2   ar
    18    11     7    1
    19    10     5   ar
    20     9     7   ar
    21     9     5   ar
    22     8     3    1
    23     7     3   ar
    24     6     2    1
    25     5     2   ar
